Circuit: * D:\OneDrive - iitkgp.ac.in\CSE\Jupyter book\Final CV Project\DAC\Low Voltage Sooch\sine_wave\long_channel.asc

Fatal Error: Could not open file "d:\onedrive - iitkgp.ac.in\semester wise\analog ic design bsahoo extra\ltspice\project\dac\low voltage sooch\2nd try with sine wave\matlab sine wave\bit1.txt" in PWL

